@<TRIPOS>MOLECULE
*****
 13 13 0 0 0
SMALL
GASTEIGER

@<TRIPOS>ATOM
      1 C           0.0000   -0.0200    0.9120 C.ar    1  UNL1        0.1169
      2 C           1.2000   -0.0130    0.2170 C.ar    1  UNL1       -0.0202
      3 C           1.1980    0.0040   -1.1630 C.ar    1  UNL1       -0.0583
      4 C           0.0000    0.0130   -1.8540 C.ar    1  UNL1       -0.0615
      5 C          -1.1980    0.0070   -1.1630 C.ar    1  UNL1       -0.0583
      6 C          -1.2000   -0.0160    0.2170 C.ar    1  UNL1       -0.0202
      7 O           0.0000   -0.0370    2.2710 O.3     1  UNL1       -0.5068
      8 H           2.1360   -0.0200    0.7560 H       1  UNL1        0.0654
      9 H           2.1320    0.0100   -1.7050 H       1  UNL1        0.0619
     10 H           0.0000    0.0270   -2.9340 H       1  UNL1        0.0618
     11 H          -2.1320    0.0150   -1.7050 H       1  UNL1        0.0619
     12 H          -2.1360   -0.0210    0.7550 H       1  UNL1        0.0654
     13 H           0.0000    0.8840    2.5620 H       1  UNL1        0.2921
@<TRIPOS>BOND
     1     1     2   ar
     2     1     6   ar
     3     1     7    1
     4     2     3   ar
     5     2     8    1
     6     3     4   ar
     7     3     9    1
     8     4     5   ar
     9     4    10    1
    10     5     6   ar
    11     5    11    1
    12     6    12    1
    13     7    13    1
